<?xml version="1.0" encoding="UTF-8" standalone="no"?>
<?fileVersion 4.0.0?><cproject storage_type_id="org.eclipse.cdt.core.XmlProjectDescriptionStorage">
	<storageModule moduleId="org.eclipse.cdt.core.settings">
		<cconfiguration id="cdt.managedbuild.config.gnu.cygwin.exe.debug.1683474842">
			<storageModule buildSystemId="org.eclipse.cdt.managedbuilder.core.configurationDataProvider" id="cdt.managedbuild.config.gnu.cygwin.exe.debug.1683474842" moduleId="org.eclipse.cdt.core.settings" name="Debug">
				<externalSettings/>
				<extensions>
					<extension id="org.eclipse.cdt.core.Cygwin_PE" point="org.eclipse.cdt.core.BinaryParser"/>
					<extension id="org.eclipse.cdt.core.GASErrorParser" point="org.eclipse.cdt.core.ErrorParser"/>
					<extension id="org.eclipse.cdt.core.GmakeErrorParser" point="org.eclipse.cdt.core.ErrorParser"/>
					<extension id="org.eclipse.cdt.core.GLDErrorParser" point="org.eclipse.cdt.core.ErrorParser"/>
					<extension id="org.eclipse.cdt.core.CWDLocator" point="org.eclipse.cdt.core.ErrorParser"/>
					<extension id="org.eclipse.cdt.core.GCCErrorParser" point="org.eclipse.cdt.core.ErrorParser"/>
				</extensions>
			</storageModule>
			<storageModule moduleId="cdtBuildSystem" version="4.0.0">
				<configuration artifactName="${ProjName}" buildArtefactType="org.eclipse.cdt.build.core.buildArtefactType.exe" buildProperties="org.eclipse.cdt.build.core.buildArtefactType=org.eclipse.cdt.build.core.buildArtefactType.exe,org.eclipse.cdt.build.core.buildType=org.eclipse.cdt.build.core.buildType.debug" cleanCommand="rm -rf" description="" id="cdt.managedbuild.config.gnu.cygwin.exe.debug.1683474842" name="Debug" parent="cdt.managedbuild.config.gnu.cygwin.exe.debug">
					<folderInfo id="cdt.managedbuild.config.gnu.cygwin.exe.debug.1683474842." name="/" resourcePath="">
						<toolChain id="cdt.managedbuild.toolchain.gnu.cygwin.exe.debug.1739252582" name="Cygwin GCC" superClass="cdt.managedbuild.toolchain.gnu.cygwin.exe.debug">
							<targetPlatform id="cdt.managedbuild.target.gnu.platform.cygwin.exe.debug.920184147" name="Debug Platform" superClass="cdt.managedbuild.target.gnu.platform.cygwin.exe.debug"/>
							<builder buildPath="${workspace_loc:/GPGPU-Sim}/Debug" id="cdt.managedbuild.target.gnu.builder.cygwin.exe.debug.735140453" managedBuildOn="true" name="Gnu Make Builder.Debug" superClass="cdt.managedbuild.target.gnu.builder.cygwin.exe.debug"/>
							<tool id="cdt.managedbuild.tool.gnu.assembler.cygwin.exe.debug.640430396" name="GCC Assembler" superClass="cdt.managedbuild.tool.gnu.assembler.cygwin.exe.debug">
								<inputType id="cdt.managedbuild.tool.gnu.assembler.input.1566874005" superClass="cdt.managedbuild.tool.gnu.assembler.input"/>
							</tool>
							<tool id="cdt.managedbuild.tool.gnu.archiver.cygwin.base.367495963" name="GCC Archiver" superClass="cdt.managedbuild.tool.gnu.archiver.cygwin.base"/>
							<tool id="cdt.managedbuild.tool.gnu.cpp.compiler.cygwin.exe.debug.1661112371" name="Cygwin C++ Compiler" superClass="cdt.managedbuild.tool.gnu.cpp.compiler.cygwin.exe.debug">
								<option id="gnu.cpp.compiler.cygwin.exe.debug.option.optimization.level.942019042" superClass="gnu.cpp.compiler.cygwin.exe.debug.option.optimization.level" value="gnu.cpp.compiler.optimization.level.none" valueType="enumerated"/>
								<option id="gnu.cpp.compiler.cygwin.exe.debug.option.debugging.level.1221353686" superClass="gnu.cpp.compiler.cygwin.exe.debug.option.debugging.level" value="gnu.cpp.compiler.debugging.level.max" valueType="enumerated"/>
								<inputType id="cdt.managedbuild.tool.gnu.cpp.compiler.input.cygwin.315699717" superClass="cdt.managedbuild.tool.gnu.cpp.compiler.input.cygwin"/>
							</tool>
							<tool id="cdt.managedbuild.tool.gnu.c.compiler.cygwin.exe.debug.1573758788" name="Cygwin C Compiler" superClass="cdt.managedbuild.tool.gnu.c.compiler.cygwin.exe.debug">
								<option defaultValue="gnu.c.optimization.level.none" id="gnu.c.compiler.cygwin.exe.debug.option.optimization.level.1864135539" superClass="gnu.c.compiler.cygwin.exe.debug.option.optimization.level" valueType="enumerated"/>
								<option id="gnu.c.compiler.cygwin.exe.debug.option.debugging.level.1560291965" superClass="gnu.c.compiler.cygwin.exe.debug.option.debugging.level" value="gnu.c.debugging.level.max" valueType="enumerated"/>
								<inputType id="cdt.managedbuild.tool.gnu.c.compiler.input.cygwin.1802622309" superClass="cdt.managedbuild.tool.gnu.c.compiler.input.cygwin"/>
							</tool>
							<tool id="cdt.managedbuild.tool.gnu.c.linker.cygwin.exe.debug.1540587075" name="Cygwin C Linker" superClass="cdt.managedbuild.tool.gnu.c.linker.cygwin.exe.debug"/>
							<tool id="cdt.managedbuild.tool.gnu.cpp.linker.cygwin.exe.debug.1149375398" name="Cygwin C++ Linker" superClass="cdt.managedbuild.tool.gnu.cpp.linker.cygwin.exe.debug">
								<inputType id="cdt.managedbuild.tool.gnu.cpp.linker.input.441291667" superClass="cdt.managedbuild.tool.gnu.cpp.linker.input">
									<additionalInput kind="additionalinputdependency" paths="$(USER_OBJS)"/>
									<additionalInput kind="additionalinput" paths="$(LIBS)"/>
								</inputType>
							</tool>
						</toolChain>
					</folderInfo>
				</configuration>
			</storageModule>
			<storageModule moduleId="org.eclipse.cdt.core.externalSettings"/>
		</cconfiguration>
		<cconfiguration id="cdt.managedbuild.config.gnu.cygwin.exe.release.552524219">
			<storageModule buildSystemId="org.eclipse.cdt.managedbuilder.core.configurationDataProvider" id="cdt.managedbuild.config.gnu.cygwin.exe.release.552524219" moduleId="org.eclipse.cdt.core.settings" name="Release">
				<externalSettings/>
				<extensions>
					<extension id="org.eclipse.cdt.core.Cygwin_PE" point="org.eclipse.cdt.core.BinaryParser"/>
					<extension id="org.eclipse.cdt.core.GASErrorParser" point="org.eclipse.cdt.core.ErrorParser"/>
					<extension id="org.eclipse.cdt.core.GmakeErrorParser" point="org.eclipse.cdt.core.ErrorParser"/>
					<extension id="org.eclipse.cdt.core.GLDErrorParser" point="org.eclipse.cdt.core.ErrorParser"/>
					<extension id="org.eclipse.cdt.core.CWDLocator" point="org.eclipse.cdt.core.ErrorParser"/>
					<extension id="org.eclipse.cdt.core.GCCErrorParser" point="org.eclipse.cdt.core.ErrorParser"/>
				</extensions>
			</storageModule>
			<storageModule moduleId="cdtBuildSystem" version="4.0.0">
				<configuration artifactName="${ProjName}" buildArtefactType="org.eclipse.cdt.build.core.buildArtefactType.exe" buildProperties="org.eclipse.cdt.build.core.buildArtefactType=org.eclipse.cdt.build.core.buildArtefactType.exe,org.eclipse.cdt.build.core.buildType=org.eclipse.cdt.build.core.buildType.release" cleanCommand="rm -rf" description="" id="cdt.managedbuild.config.gnu.cygwin.exe.release.552524219" name="Release" parent="cdt.managedbuild.config.gnu.cygwin.exe.release">
					<folderInfo id="cdt.managedbuild.config.gnu.cygwin.exe.release.552524219." name="/" resourcePath="">
						<toolChain id="cdt.managedbuild.toolchain.gnu.cygwin.exe.release.1222833642" name="Cygwin GCC" superClass="cdt.managedbuild.toolchain.gnu.cygwin.exe.release">
							<targetPlatform id="cdt.managedbuild.target.gnu.platform.cygwin.exe.release.709396875" name="Debug Platform" superClass="cdt.managedbuild.target.gnu.platform.cygwin.exe.release"/>
							<builder buildPath="${workspace_loc:/GPGPU-Sim}/Release" id="cdt.managedbuild.target.gnu.builder.cygwin.exe.release.1837863618" managedBuildOn="true" name="Gnu Make Builder.Release" superClass="cdt.managedbuild.target.gnu.builder.cygwin.exe.release"/>
							<tool id="cdt.managedbuild.tool.gnu.assembler.cygwin.exe.release.1724621340" name="GCC Assembler" superClass="cdt.managedbuild.tool.gnu.assembler.cygwin.exe.release">
								<inputType id="cdt.managedbuild.tool.gnu.assembler.input.2036345549" superClass="cdt.managedbuild.tool.gnu.assembler.input"/>
							</tool>
							<tool id="cdt.managedbuild.tool.gnu.archiver.cygwin.base.1312445803" name="GCC Archiver" superClass="cdt.managedbuild.tool.gnu.archiver.cygwin.base"/>
							<tool id="cdt.managedbuild.tool.gnu.cpp.compiler.cygwin.exe.release.912399939" name="Cygwin C++ Compiler" superClass="cdt.managedbuild.tool.gnu.cpp.compiler.cygwin.exe.release">
								<option id="gnu.cpp.compiler.cygwin.exe.release.option.optimization.level.932657288" superClass="gnu.cpp.compiler.cygwin.exe.release.option.optimization.level" value="gnu.cpp.compiler.optimization.level.most" valueType="enumerated"/>
								<option id="gnu.cpp.compiler.cygwin.exe.release.option.debugging.level.508667492" superClass="gnu.cpp.compiler.cygwin.exe.release.option.debugging.level" value="gnu.cpp.compiler.debugging.level.none" valueType="enumerated"/>
								<inputType id="cdt.managedbuild.tool.gnu.cpp.compiler.input.cygwin.362646420" superClass="cdt.managedbuild.tool.gnu.cpp.compiler.input.cygwin"/>
							</tool>
							<tool id="cdt.managedbuild.tool.gnu.c.compiler.cygwin.exe.release.417842918" name="Cygwin C Compiler" superClass="cdt.managedbuild.tool.gnu.c.compiler.cygwin.exe.release">
								<option defaultValue="gnu.c.optimization.level.most" id="gnu.c.compiler.cygwin.exe.release.option.optimization.level.2112092403" superClass="gnu.c.compiler.cygwin.exe.release.option.optimization.level" valueType="enumerated"/>
								<option id="gnu.c.compiler.cygwin.exe.release.option.debugging.level.1699221997" superClass="gnu.c.compiler.cygwin.exe.release.option.debugging.level" value="gnu.c.debugging.level.none" valueType="enumerated"/>
								<inputType id="cdt.managedbuild.tool.gnu.c.compiler.input.cygwin.1190887513" superClass="cdt.managedbuild.tool.gnu.c.compiler.input.cygwin"/>
							</tool>
							<tool id="cdt.managedbuild.tool.gnu.c.linker.cygwin.exe.release.1144416254" name="Cygwin C Linker" superClass="cdt.managedbuild.tool.gnu.c.linker.cygwin.exe.release"/>
							<tool id="cdt.managedbuild.tool.gnu.cpp.linker.cygwin.exe.release.1890465211" name="Cygwin C++ Linker" superClass="cdt.managedbuild.tool.gnu.cpp.linker.cygwin.exe.release">
								<inputType id="cdt.managedbuild.tool.gnu.cpp.linker.input.1362722755" superClass="cdt.managedbuild.tool.gnu.cpp.linker.input">
									<additionalInput kind="additionalinputdependency" paths="$(USER_OBJS)"/>
									<additionalInput kind="additionalinput" paths="$(LIBS)"/>
								</inputType>
							</tool>
						</toolChain>
					</folderInfo>
				</configuration>
			</storageModule>
		</cconfiguration>
	</storageModule>
	<storageModule moduleId="cdtBuildSystem" version="4.0.0">
		<project id="GPGPU-Sim.cdt.managedbuild.target.gnu.cygwin.exe.1034389029" name="Executable" projectType="cdt.managedbuild.target.gnu.cygwin.exe"/>
	</storageModule>
	<storageModule moduleId="scannerConfiguration">
		<autodiscovery enabled="true" problemReportingEnabled="true" selectedProfileId=""/>
		<scannerConfigBuildInfo instanceId="cdt.managedbuild.config.gnu.cygwin.exe.release.552524219;cdt.managedbuild.config.gnu.cygwin.exe.release.552524219.;cdt.managedbuild.tool.gnu.c.compiler.cygwin.exe.release.417842918;cdt.managedbuild.tool.gnu.c.compiler.input.cygwin.1190887513">
			<autodiscovery enabled="true" problemReportingEnabled="true" selectedProfileId=""/>
		</scannerConfigBuildInfo>
		<scannerConfigBuildInfo instanceId="cdt.managedbuild.config.gnu.cygwin.exe.debug.1683474842;cdt.managedbuild.config.gnu.cygwin.exe.debug.1683474842.;cdt.managedbuild.tool.gnu.cpp.compiler.cygwin.exe.debug.1661112371;cdt.managedbuild.tool.gnu.cpp.compiler.input.cygwin.315699717">
			<autodiscovery enabled="true" problemReportingEnabled="true" selectedProfileId=""/>
		</scannerConfigBuildInfo>
		<scannerConfigBuildInfo instanceId="cdt.managedbuild.config.gnu.cygwin.exe.release.552524219;cdt.managedbuild.config.gnu.cygwin.exe.release.552524219.;cdt.managedbuild.tool.gnu.cpp.compiler.cygwin.exe.release.912399939;cdt.managedbuild.tool.gnu.cpp.compiler.input.cygwin.362646420">
			<autodiscovery enabled="true" problemReportingEnabled="true" selectedProfileId=""/>
		</scannerConfigBuildInfo>
		<scannerConfigBuildInfo instanceId="cdt.managedbuild.config.gnu.cygwin.exe.debug.1683474842;cdt.managedbuild.config.gnu.cygwin.exe.debug.1683474842.;cdt.managedbuild.tool.gnu.c.compiler.cygwin.exe.debug.1573758788;cdt.managedbuild.tool.gnu.c.compiler.input.cygwin.1802622309">
			<autodiscovery enabled="true" problemReportingEnabled="true" selectedProfileId=""/>
		</scannerConfigBuildInfo>
	</storageModule>
	<storageModule moduleId="org.eclipse.cdt.core.LanguageSettingsProviders"/>
</cproject>
